
  CDK     06112419293D

 18 20  0  0  0  0  0  0  0  0999 V2000
   -7.1446    3.7028    0.0000 C   0  0  0  0  0  0  0  0  0  0  0  0
   -7.1451    2.2020    0.0000 C   0  0  0  0  0  0  0  0  0  0  0  0
   -5.8460    1.4520    0.0000 C   0  0  0  0  0  0  0  0  0  0  0  0
   -4.5465    2.2028    0.0000 C   0  0  0  0  0  0  0  0  0  0  0  0
   -4.5460    3.7037    0.0000 C   0  0  0  0  0  0  0  0  0  0  0  0
   -5.8451    4.4537    0.0000 C   0  0  0  0  0  0  0  0  0  0  0  0
   -3.2475    1.4528    0.0000 C   0  0  0  0  0  0  0  0  0  0  0  0
   -3.2454   -0.0393    0.0000 C   0  0  0  0  0  0  0  0  0  0  0  0
   -1.9477   -0.7915    0.0000 C   0  0  0  0  0  0  0  0  0  0  0  0
   -0.6519   -0.0515    0.0000 C   0  0  0  0  0  0  0  0  0  0  0  0
   -0.6489    1.4493    0.0000 C   0  0  0  0  0  0  0  0  0  0  0  0
   -1.9467    2.2015    0.0000 C   0  0  0  0  0  0  0  0  0  0  0  0
    0.6515    2.1969    0.0000 C   0  0  0  0  0  0  0  0  0  0  0  0
    0.6538    3.6978    0.0000 C   0  0  0  0  0  0  0  0  0  0  0  0
    1.9542    4.4454    0.0000 C   0  0  0  0  0  0  0  0  0  0  0  0
    3.2523    3.6922    0.0000 C   0  0  0  0  0  0  0  0  0  0  0  0
    3.2501    2.1913    0.0000 C   0  0  0  0  0  0  0  0  0  0  0  0
    1.9496    1.4437    0.0000 C   0  0  0  0  0  0  0  0  0  0  0  0
  1  2  4  0  0  0  0
  2  3  4  0  0  0  0
  3  4  4  0  0  0  0
  4  5  4  0  0  0  0
  5  6  4  0  0  0  0
  1  6  4  0  0  0  0
  4  7  1  0  0  0  0
  7  8  4  0  0  0  0
  8  9  4  0  0  0  0
  9 10  4  0  0  0  0
 10 11  4  0  0  0  0
 11 12  4  0  0  0  0
  7 12  4  0  0  0  0
 11 13  1  0  0  0  0
 13 14  4  0  0  0  0
 14 15  4  0  0  0  0
 15 16  4  0  0  0  0
 16 17  4  0  0  0  0
 17 18  4  0  0  0  0
 13 18  4  0  0  0  0
M  END
$$$$

  CDK     06112419293D

  4  3  0  0  0  0  0  0  0  0999 V2000
    0.9743    0.5625    0.0000 *   0  0  0  0  0  0  0  0  0  0  0  0
   -0.3248    1.3125    0.0000 C   0  0  0  0  0  0  0  0  0  0  0  0
   -1.6238    0.5625    0.0000 *   0  0  0  0  0  0  0  0  0  0  0  0
   -0.3248    2.8125    0.0000 *   0  0  0  0  0  0  0  0  0  0  0  0
  1  2  1  0  0  0  0
  2  3  1  0  0  0  0
  2  4  1  0  0  0  0
M  END
$$$$

  CDK     06112419293D

 14 15  0  0  0  0  0  0  0  0999 V2000
    0.9806   -2.0653    0.0000 C   0  0  0  0  0  0  0  0  0  0  0  0
    2.2784   -1.3132    0.0000 C   0  0  0  0  0  0  0  0  0  0  0  0
    3.5729   -2.0553    0.0000 C   0  0  0  0  0  0  0  0  0  0  0  0
    4.8720   -1.3053    0.0000 C   0  0  0  0  0  0  0  0  0  0  0  0
    4.8765    0.1868    0.0000 C   0  0  0  0  0  0  0  0  0  0  0  0
    3.5770    0.9377    0.0000 C   0  0  0  0  0  0  0  0  0  0  0  0
    2.2779    0.1877    0.0000 C   0  0  0  0  0  0  0  0  0  0  0  0
    0.9788    0.9375    0.0000 C   0  0  0  0  0  0  0  0  0  0  0  0
    0.9765    2.4296    0.0000 C   0  0  0  0  0  0  0  0  0  0  0  0
   -0.3214    3.1816    0.0000 C   0  0  0  0  0  0  0  0  0  0  0  0
   -1.6170    2.4414    0.0000 C   0  0  0  0  0  0  0  0  0  0  0  0
   -1.6198    0.9406    0.0000 C   0  0  0  0  0  0  0  0  0  0  0  0
   -0.3219    0.1886    0.0000 C   0  0  0  0  0  0  0  0  0  0  0  0
   -0.3239   -1.3114    0.0000 C   0  0  0  0  0  0  0  0  0  0  0  0
  1  2  4  0  0  0  0
  2  3  4  0  0  0  0
  3  4  4  0  0  0  0
  4  5  4  0  0  0  0
  5  6  4  0  0  0  0
  6  7  4  4  0  0  0
  2  7  4  0  0  0  0
  7  8  4  0  0  0  0
  8  9  4  0  0  0  0
  9 10  4  0  0  0  0
 10 11  4  0  0  0  0
 11 12  4  0  0  0  0
 12 13  4  0  0  0  0
  8 13  4  0  0  0  0
 13 14  4  0  0  0  0
M  END
$$$$

  CDK     06112419293D

  5  4  0  0  0  0  0  0  0  0999 V2000
   -3.8971    2.2500    0.0000 C   0  0  0  0  0  0  0  0  0  0  0  0
   -2.5981    1.5000    0.0000 C   0  0  0  0  0  0  0  0  0  0  0  0
   -1.2990    2.2500    0.0000 C   0  0  0  0  0  0  0  0  0  0  0  0
    0.0000    1.5000    0.0000 C   0  0  0  0  0  0  0  0  0  0  0  0
    1.2990    2.2500    0.0000 C   0  0  0  0  0  0  0  0  0  0  0  0
  1  2  1  0  0  0  0
  2  3  1  0  0  0  0
  3  4  1  0  0  0  0
  4  5  1  0  0  0  0
M  END
$$$$
